/*--------------------------------*- C++ -*----------------------------------*\
| =========                 |                                                 |
| \\      /  F ield         | OpenFOAM: The Open Source CFD Toolbox           |
|  \\    /   O peration     | Version:  v2012                                 |
|   \\  /    A nd           | Website:  www.openfoam.com                      |
|    \\/     M anipulation  |                                                 |
\*---------------------------------------------------------------------------*/
FoamFile
{
    version     2.0;
    format      ascii;
    class       dictionary;
    location    "system";
    object      controlDict;
}
// * * * * * * * * * * * * * * * * * * * * * * * * * * * * * * * * * * * * * //

application     pimpleFoam;

startFrom       latestTime;

//startTime       0;

stopAt          endTime;

endTime         1000;

deltaT          20;
writeControl    timeStep;
writeInterval   100;

////- For testing with moveDynamicMesh
//deltaT          0.01;
//writeControl    timeStep;
//writeInterval   1;

purgeWrite      0;

writeFormat     binary;

writePrecision  6;

writeCompression off;

timeFormat      general;

timePrecision   6;

runTimeModifiable true;

adjustTimeStep  true;

maxCo           0.2; // El inicial es 2

//Elimino las funciones que no van a usarse.

functions
{
//#include "fieldAverageTester"
//    #includeFunc Q
//    #include "surfaces"
//    #include "forces"
//    #include "AMIWeights"
}

// ************************************************************************* //
