/*--------------------------------*- C++ -*----------------------------------*\
| =========                 |                                                 |
| \\      /  F ield         | OpenFOAM: The Open Source CFD Toolbox           |
|  \\    /   O peration     | Version:  v2012                                 |
|   \\  /    A nd           | Website:  www.openfoam.com                      |
|    \\/     M anipulation  |                                                 |
\*---------------------------------------------------------------------------*/
FoamFile
{
    version     2.0;
    format      ascii;
    class       volScalarField;
    object      k;
}
// * * * * * * * * * * * * * * * * * * * * * * * * * * * * * * * * * * * * * //

kInlet          1.2; // original era 1.5  // approx k = 1.5*(I*U)^2 ; I = 0.1

dimensions      [0 2 -2 0 0 0 0];

internalField   uniform $kInlet;

boundaryField
{
    inletWest
    {
        type            fixedValue;
        value           uniform $kInlet;
    }

    outletEast
    {
        type            inletOutlet;
        inletValue      uniform $kInlet;
        value           uniform $kInlet;
    }

    city_Building
    {
        type            kqRWallFunction;
        value           uniform $kInlet;
    }

    city_BuildingEntrance
    {
        type            kqRWallFunction;
        value           uniform $kInlet;
    }

    city_Pool
    {
        type            kqRWallFunction;
        value           uniform $kInlet;
    }

    ground
    {
        type            kqRWallFunction;
        value           uniform $kInlet;
    }

    outletNorth
    {
        type            inletOutlet;
        inletValue      uniform $kInlet;
        value           uniform $kInlet;
    }

    outletSouth
    {
        type            inletOutlet;
        inletValue      uniform $kInlet;
        value           uniform $kInlet;
    }

    sky
    {
        type            inletOutlet;
        inletValue      uniform $kInlet;
        value           uniform $kInlet;
    }

    #includeEtc "caseDicts/setConstraintTypes"
}

// ************************************************************************* //
